  
       XFOIL         Version 6.99
  
 Calculated polar for: NACA 63(3)-618                                  
  
 1 1 Reynolds number fixed          Mach number fixed         
  
 xtrf =   1.000 (top)        1.000 (bottom)  
 Mach =   0.090     Re =     2.000 e 6     Ncrit =   9.000  9.000
  
   alpha    CL        CD       CDp       CM     Top_Xtr  Bot_Xtr  Top_Itr  Bot_Itr
  ------ -------- --------- --------- -------- -------- -------- -------- --------
  -3.000   0.1718   0.00583   0.00023  -0.1122   0.6009   0.4272  24.4244 125.8826
  -2.750   0.2019   0.00580   0.00024  -0.1127   0.5957   0.4427  24.7186 126.7554
  -2.500   0.2318   0.00579   0.00025  -0.1131   0.5904   0.4553  25.0205 127.4604
  -2.250   0.2622   0.00577   0.00026  -0.1136   0.5871   0.4664  25.2067 128.0776
  -2.000   0.2925   0.00574   0.00027  -0.1141   0.5829   0.4772  25.4465 128.6788
  -1.750   0.3224   0.00578   0.00028  -0.1144   0.5781   0.4825  25.7189 128.9699
  -1.500   0.3522   0.00579   0.00029  -0.1148   0.5727   0.4901  26.0214 129.3900
  -1.250   0.3825   0.00579   0.00031  -0.1153   0.5694   0.4977  26.2135 129.8057
  -1.000   0.4126   0.00580   0.00031  -0.1157   0.5651   0.5042  26.4609 130.1640
  -0.750   0.4424   0.00582   0.00033  -0.1161   0.5604   0.5110  26.7264 130.5354
  -0.500   0.4720   0.00587   0.00034  -0.1164   0.5553   0.5159  27.0168 130.7994
  -0.250   0.5022   0.00589   0.00035  -0.1169   0.5522   0.5194  27.1939 130.9914
   0.000   0.5322   0.00590   0.00036  -0.1173   0.5480   0.5258  27.4345 131.3357
   0.250   0.5618   0.00594   0.00037  -0.1177   0.5431   0.5313  27.7158 131.6357
   0.500   0.5912   0.00600   0.00039  -0.1179   0.5377   0.5361  28.0254 131.8922
   0.750   0.6212   0.00602   0.00040  -0.1184   0.5342   0.5410  28.2299 132.1590
   1.000   0.6510   0.00604   0.00041  -0.1188   0.5296   0.5468  28.4903 132.4686
   1.250   0.6803   0.00610   0.00042  -0.1191   0.5245   0.5516  28.7829 132.7306
   1.500   0.7097   0.00617   0.00044  -0.1194   0.5199   0.5555  29.0498 132.9386
   1.750   0.7396   0.00619   0.00045  -0.1198   0.5165   0.5603  29.2492 133.1940
   2.000   0.7691   0.00622   0.00046  -0.1201   0.5122   0.5655  29.4985 133.4714
   2.250   0.7981   0.00630   0.00048  -0.1204   0.5070   0.5702  29.7954 133.7239
   2.500   0.8273   0.00637   0.00049  -0.1207   0.5024   0.5743  30.0626 133.9413
   2.750   0.8569   0.00640   0.00050  -0.1210   0.4985   0.5796  30.2930 134.2211
   3.000   0.8860   0.00646   0.00051  -0.1213   0.4930   0.5851  30.6091 134.5095
   3.250   0.9144   0.00657   0.00054  -0.1215   0.4860   0.5898  31.0203 134.7602
   3.500   0.9437   0.00662   0.00054  -0.1218   0.4808   0.5936  31.3250 134.9623
   3.750   0.9723   0.00671   0.00055  -0.1220   0.4742   0.5991  31.7111 135.2506
   4.000   1.0008   0.00680   0.00057  -0.1222   0.4682   0.6046  32.0647 135.5373
   4.250   1.0297   0.00686   0.00058  -0.1224   0.4624   0.6097  32.4056 135.8039
   4.750   1.0857   0.00709   0.00061  -0.1226   0.4454   0.6205  33.4101 136.3687
   5.000   1.1128   0.00725   0.00064  -0.1226   0.4351   0.6261  34.0218 136.6600
   5.250   1.1409   0.00735   0.00065  -0.1227   0.4273   0.6308  34.4859 136.9052
   5.500   1.1676   0.00753   0.00068  -0.1226   0.4157   0.6360  35.1734 137.1749
   5.750   1.1936   0.00774   0.00072  -0.1223   0.4001   0.6421  36.1076 137.4908
   6.000   1.2185   0.00801   0.00078  -0.1219   0.3808   0.6476  37.2753 137.7812
   6.500   1.2640   0.00875   0.00100  -0.1204   0.3313   0.6594  40.3063 138.3936
   6.750   1.2841   0.00923   0.00117  -0.1192   0.3038   0.6655  41.9961 138.7108
   7.000   1.3040   0.00970   0.00132  -0.1180   0.2777   0.6704  43.6064 138.9647
   7.250   1.3214   0.01025   0.00153  -0.1163   0.2485   0.6769  45.4145 139.3026
   7.500   1.3366   0.01086   0.00175  -0.1143   0.2195   0.6835  47.2502 139.6474
   7.750   1.3496   0.01149   0.00198  -0.1119   0.1923   0.6892  48.9951 139.9455
   8.000   1.3598   0.01201   0.00214  -0.1089   0.1708   0.6961  50.4189 140.3090
   8.250   1.3674   0.01258   0.00232  -0.1055   0.1524   0.7030  51.6771 140.6734
   8.500   1.3756   0.01318   0.00252  -0.1023   0.1366   0.7089  52.8018 140.9822
   8.750   1.3838   0.01382   0.00274  -0.0993   0.1219   0.7167  53.8904 141.4007
   9.000   1.3917   0.01451   0.00300  -0.0964   0.1085   0.7241  54.9315 141.7925
   9.250   1.3995   0.01525   0.00328  -0.0936   0.0968   0.7308  55.9189 142.1549
   9.500   1.4073   0.01606   0.00362  -0.0909   0.0861   0.7388  56.8889 142.5866
   9.750   1.4143   0.01696   0.00400  -0.0884   0.0759   0.7460  57.9014 142.9734
  10.000   1.4209   0.01795   0.00446  -0.0859   0.0663   0.7548  58.9697 143.4508
  10.250   1.4276   0.01900   0.00496  -0.0836   0.0578   0.7630  60.0465 143.8980
  10.500   1.4344   0.02012   0.00551  -0.0815   0.0503   0.7716  61.1239 144.3731
  10.750   1.4413   0.02130   0.00611  -0.0795   0.0440   0.7807  62.1378 144.8715
  11.000   1.4487   0.02250   0.00673  -0.0777   0.0391   0.7906  63.0078 145.4255
  11.250   1.4580   0.02364   0.00732  -0.0762   0.0358   0.8009  63.6494 145.9971
  11.500   1.4668   0.02484   0.00796  -0.0747   0.0331   0.8129  64.1945 146.6786
  11.750   1.4756   0.02610   0.00864  -0.0733   0.0311   0.8249  64.6357 147.3653
  12.000   1.4844   0.02739   0.00935  -0.0720   0.0293   0.8382  65.0399 148.1423
  12.250   1.4945   0.02859   0.01001  -0.0708   0.0283   0.8549  65.2739 149.1327
  12.500   1.5026   0.02992   0.01078  -0.0696   0.0273   0.8799  65.5217 150.6338
  12.750   1.5079   0.03114   0.01154  -0.0678   0.0263   0.9871  65.7694 158.6299
  13.000   1.5146   0.03267   0.01238  -0.0665   0.0253   1.0000  66.0173 160.0000
  13.250   1.5247   0.03412   0.01319  -0.0658   0.0248   1.0000  66.1544 160.0000
  13.500   1.5346   0.03562   0.01403  -0.0651   0.0242   1.0000  66.3316 160.0000
  13.750   1.5425   0.03735   0.01503  -0.0644   0.0235   1.0000  66.5215 160.0000
  14.000   1.5503   0.03912   0.01607  -0.0638   0.0227   1.0000  66.7306 160.0000
  14.250   1.5565   0.04108   0.01726  -0.0631   0.0219   1.0000  66.9652 160.0000
  14.500   1.5654   0.04285   0.01830  -0.0627   0.0215   1.0000  67.0896 160.0000
  14.750   1.5744   0.04462   0.01934  -0.0623   0.0210   1.0000  67.2426 160.0000
  15.000   1.5818   0.04661   0.02055  -0.0620   0.0204   1.0000  67.4264 160.0000
  15.250   1.5889   0.04864   0.02179  -0.0617   0.0197   1.0000  67.6349 160.0000
  15.500   1.5937   0.05099   0.02329  -0.0615   0.0189   1.0000  67.8674 160.0000
  15.750   1.6008   0.05312   0.02461  -0.0613   0.0183   1.0000  68.0647 160.0000
  16.000   1.6077   0.05533   0.02600  -0.0613   0.0178   1.0000  68.2493 160.0000
  16.250   1.6144   0.05756   0.02739  -0.0612   0.0170   1.0000  68.5067 160.0000
  16.500   1.6183   0.06019   0.02914  -0.0613   0.0162   1.0000  68.7929 160.0000
  16.750   1.6231   0.06275   0.03081  -0.0614   0.0154   1.0000  69.0793 160.0000
  17.000   1.6283   0.06531   0.03250  -0.0616   0.0146   1.0000  69.3776 160.0000
  17.250   1.6315   0.06815   0.03443  -0.0619   0.0137   1.0000  69.7339 160.0000
  17.500   1.6342   0.07109   0.03646  -0.0623   0.0129   1.0000  70.0735 160.0000
  17.750   1.6372   0.07406   0.03852  -0.0628   0.0122   1.0000  70.3591 160.0000
  18.000   1.6398   0.07712   0.04068  -0.0633   0.0115   1.0000  70.6514 160.0000
  18.250   1.6396   0.08061   0.04327  -0.0640   0.0109   1.0000  70.9242 160.0000
  18.500   1.6425   0.08369   0.04548  -0.0647   0.0106   1.0000  71.1006 160.0000
  18.750   1.6432   0.08715   0.04810  -0.0655   0.0103   1.0000  71.2376 160.0000
  19.000   1.6454   0.09041   0.05053  -0.0664   0.0100   1.0000  71.3789 160.0000
  19.250   1.6450   0.09412   0.05346  -0.0674   0.0097   1.0000  71.5011 160.0000
  19.500   1.6451   0.09775   0.05636  -0.0685   0.0095   1.0000  71.6208 160.0000
  19.750   1.6441   0.10160   0.05956  -0.0698   0.0093   1.0000  71.7406 160.0000
  20.000   1.6420   0.10566   0.06306  -0.0712   0.0090   1.0000  71.8634 160.0000
