  
       XFOIL         Version 6.99
  
 Calculated polar for: NACA 63(3)-618                                  
  
 1 1 Reynolds number fixed          Mach number fixed         
  
 xtrf =   1.000 (top)        1.000 (bottom)  
 Mach =   0.100     Re =     1.000 e 6     Ncrit =   9.000  9.000
  
   alpha    CL        CD       CDp       CM     Top_Xtr  Bot_Xtr  Top_Itr  Bot_Itr
  ------ -------- --------- --------- -------- -------- -------- -------- --------
  -1.000   0.4023   0.00709   0.00073  -0.1135   0.5962   0.5371  24.6927 131.9480
  -0.500   0.4616   0.00713   0.00076  -0.1142   0.5873   0.5479  25.1939 132.5292
   0.000   0.5208   0.00722   0.00078  -0.1149   0.5782   0.5579  25.7129 133.0647
   0.500   0.5798   0.00729   0.00082  -0.1155   0.5698   0.5685  26.1922 133.6320
   1.000   0.6387   0.00738   0.00084  -0.1161   0.5607   0.5778  26.7071 134.1257
   1.500   0.6972   0.00748   0.00087  -0.1167   0.5518   0.5876  27.2193 134.6447
   2.000   0.7555   0.00759   0.00089  -0.1172   0.5424   0.5974  27.7541 135.1597
   2.500   0.8136   0.00771   0.00094  -0.1178   0.5339   0.6076  28.2470 135.6971
   3.000   0.8712   0.00785   0.00096  -0.1182   0.5247   0.6174  28.7751 136.2064
   3.500   0.9287   0.00800   0.00100  -0.1186   0.5157   0.6283  29.2952 136.7752
   4.500   1.0415   0.00835   0.00102  -0.1190   0.4920   0.6500  30.6674 137.9017
   5.000   1.0971   0.00854   0.00104  -0.1191   0.4799   0.6613  31.3769 138.4894
   5.500   1.1512   0.00880   0.00104  -0.1190   0.4639   0.6731  32.3153 139.1025
   6.000   1.2042   0.00908   0.00105  -0.1186   0.4460   0.6853  33.3756 139.7443
   6.500   1.2538   0.00950   0.00108  -0.1177   0.4203   0.6974  34.8992 140.3788
   7.000   1.3023   0.00996   0.00112  -0.1166   0.3937   0.7102  36.4962 141.0523
   7.500   1.3430   0.01070   0.00127  -0.1142   0.3536   0.7236  38.9399 141.7699
   8.000   1.3698   0.01185   0.00160  -0.1095   0.2972   0.7373  42.4039 142.5048
   8.500   1.3791   0.01328   0.00205  -0.1018   0.2431   0.7519  45.7556 143.2973
   9.000   1.3847   0.01506   0.00272  -0.0944   0.1947   0.7683  48.8398 144.1929
   9.500   1.3918   0.01706   0.00358  -0.0880   0.1570   0.7859  51.3625 145.1588
  10.000   1.3999   0.01933   0.00466  -0.0826   0.1268   0.8058  53.5239 146.2749
  10.500   1.4075   0.02194   0.00601  -0.0778   0.1011   0.8293  55.5503 147.6200
  11.000   1.4130   0.02494   0.00768  -0.0734   0.0788   0.8585  57.6116 149.3434
  11.500   1.4123   0.02803   0.00951  -0.0683   0.0613   0.9354  59.6029 154.2996
  13.000   1.4445   0.03907   0.01625  -0.0623   0.0361   1.0000  63.5800 160.0000
  13.500   1.4566   0.04314   0.01885  -0.0612   0.0331   1.0000  64.1903 160.0000
  14.000   1.4692   0.04735   0.02158  -0.0604   0.0308   1.0000  64.7111 160.0000
  14.500   1.4802   0.05194   0.02463  -0.0599   0.0288   1.0000  65.1536 160.0000
  15.000   1.4928   0.05654   0.02771  -0.0597   0.0272   1.0000  65.5586 160.0000
  15.500   1.4976   0.06225   0.03177  -0.0599   0.0255   1.0000  65.9817 160.0000
  16.000   1.5102   0.06721   0.03520  -0.0603   0.0242   1.0000  66.3295 160.0000
  16.500   1.5175   0.07300   0.03938  -0.0611   0.0227   1.0000  66.7384 160.0000
  17.000   1.5213   0.07945   0.04423  -0.0623   0.0213   1.0000  67.1439 160.0000
  17.500   1.5294   0.08548   0.04874  -0.0636   0.0198   1.0000  67.6013 160.0000
  18.000   1.5285   0.09295   0.05480  -0.0656   0.0184   1.0000  68.0560 160.0000
  18.500   1.5345   0.09954   0.06013  -0.0676   0.0170   1.0000  68.5238 160.0000
  19.000   1.5316   0.10762   0.06730  -0.0704   0.0158   1.0000  68.9414 160.0000
  19.500   1.5316   0.11533   0.07449  -0.0733   0.0149   1.0000  69.2831 160.0000
  20.000   1.5302   0.12334   0.08254  -0.0767   0.0141   1.0000  69.5869 160.0000
